/*--------------------------------*- C++ -*----------------------------------*\
| =========                 |                                                 |
| \\      /  F ield         | OpenFOAM: The Open Source CFD Toolbox           |
|  \\    /   O peration     | Version:  2.2.1                                 |
|   \\  /    A nd           | Web:      www.OpenFOAM.org                      |
|    \\/     M anipulation  |                                                 |
\*---------------------------------------------------------------------------*/
FoamFile
{
    version     2.0;
    format      ascii;
    class       dictionary;
    object      blockMeshDict;
}
// * * * * * * * * * * * * * * * * * * * * * * * * * * * * * * * * * * * * * //

convertToMeters 1.0;

vertices
(
    (0   0   0  )
    (1   0   0  )
    (1   1   0  )
    (0   1   0  )
    (0   0   0.1)
    (1   0   0.1)
    (1   1   0.1)
    (0   1   0.1)
);

blocks
(
    hex (0 1 2 3 4 5 6 7)  (30 30 1) simpleGrading  (1 1 1)
);

edges
(
);

boundary
(
	movingWall
	{
		type patch;
		faces
		(
			(7 6 2 3)
		);
	}
	
	fixedWalls
        {
                type patch;
                faces
                (
                        (4 7 3 0)
			(4 0 1 5)
			(5 1 2 6)
                );
        }
	
	frontAndBackPlanes
	{
		type empty;
		faces
		(
			(0 3 2 1)
			(4 5 6 7)
		);
	}
);

mergePatchPairs
(
);

// ************************************************************************* //
